03_OpenDSS_Circuits/ERaleigh_Circuit_1/Sections.DSS
// *******************************
// Defines Line names (Sections) for fused and regulators
New Line.GS93BK__2892079 Bus1=1992553 Bus2=1992554
New Line.PGT38_GS80BK_2852954 Bus1=1992591 Bus2=1992588
New Line.9GD25_PGZ90_2881982 Bus1=26259236 Bus2=26259145
New Line.PJ126_PJ126_2892040 Bus1=26512068 Bus2=26512071
New Line.11F134_144581_103013411 Bus1=103004798 Bus2=103004800
New Line.GS83BK__2868704 Bus1=1765896 Bus2=25028592
New Line.HV15BK_HV17BK_2852967 Bus1=1992510 Bus2=1992509
New Line.MA843_GS83BK_2836548 Bus1=25028592 Bus2=27043772
New Line.GS80BK_GS83BK_2852955 Bus1=1992589 Bus2=1765896
New Line.RD506_PGZ90_2853003 Bus1=26259149 Bus2=27043862
New Line.HV16BK_REC47_2852948 Bus1=1765890 Bus2=1992511
New Line.145754_145754_103033626 Bus1=103013365 Bus2=103013366
New Line.GS68BK_GS71BK_2852950 Bus1=1992493 Bus2=1992508
New Line.145754_145754_103033629 Bus1=103013368 Bus2=103013369
New Line.GT18BK__2890991 Bus1=1992535 Bus2=26449577
New Line.REA79_REA81_2836501 Bus1=26595446 Bus2=1823869
New Line.PGZ90_PJ126_2852999 Bus1=26259153 Bus2=26424757
New Line.187M75__104868832 Bus1=103602979 Bus2=T5120B01_10000011
New Line.0360BK_RDZ75_2836526 Bus1=1823860 Bus2=1823866
New Line.11H260__2912107 Bus1=27043849 Bus2=26172320
New Line.PGT38_GS90BK_2852957 Bus1=1992591 Bus2=1992558
New Line.144581__2912130 Bus1=103004800 Bus2=26824809
New Line.C604BK_REA84_2836504 Bus1=1823814 Bus2=1823812
New Line.HV16BK__2864181 Bus1=1992511 Bus2=1765895
New Line.PDP28_REA79_2836490 Bus1=1823870 Bus2=26595445
New Line.REA51_REA52_2836512 Bus1=1823849 Bus2=1823819
New Line.GS71BK_GS76BK_2852951 Bus1=1992508 Bus2=1992507
New Line.PGZ90__2888482 Bus1=26259143 Bus2=26259153
New Line.PGZ90__2888483 Bus1=26259145 Bus2=26259143
New Line.PGZ90__2888481 Bus1=26259143 Bus2=26259147
New Line.REA84_RDZ72_2836505 Bus1=1823812 Bus2=1823811
New Line.PGZ90__104110414 Bus1=103317988 Bus2=T5120B01_10000003
New Line.GS79BK_PGT38_2852953 Bus1=1992593 Bus2=1992591
New Line.GS68BK__2888697 Bus1=1992493 Bus2=T5120B01_10000002
New Line.GT16BK_GT17BK_2893175 Bus1=26621405 Bus2=26621406
New Line.11F134_11F134_2890570 Bus1=26424531 Bus2=103332076
New Line.11F134_11F134_2890571 Bus1=26424531 Bus2=103332079
New Line.RDZ99_REA50_2836510 Bus1=1823817 Bus2=1823816
New Line.GT28BK__103013451 Bus1=GT28BK_103013451 Bus2=T5120B01_10000000
New Line.PGZ90_PGZ90_2888486 Bus1=26259150 Bus2=26259151
New Line.PGZ90_PGZ90_2888485 Bus1=26259147 Bus2=26259148
New Line.145754_145754_103033531 Bus1=103013278 Bus2=103013321
New Line.9GY40_11F134_2895223 Bus1=26424527 Bus2=103004792
New Line.PJ126_PJ126_2892039 Bus1=26512066 Bus2=26512070
New Line.GT18BK_11F134_2890990 Bus1=26449577 Bus2=26449578
New Line.RDZ92_RDZ92_2880866 Bus1=25945740 Bus2=T5120B01_10000013
New Line.GS80BK__2864178 Bus1=1992588 Bus2=1992590
New Line.11F134__2891001 Bus1=26449578 Bus2=27145130
New Line.11F134__2891002 Bus1=27145131 Bus2=26424532
New Line.11F134__2891003 Bus1=27145132 Bus2=26424531
New Line.11F134__2891004 Bus1=27145133 Bus2=26424530
New Line.PDP28__2843462 Bus1=T5120B01_1_reg Bus2=1823870
New Line.GS76BK_GS79BK_2852952 Bus1=1992507 Bus2=1992593
New Line.RDZ75_RE585_2836507 Bus1=1823866 Bus2=1823868
New Line.C603BK_C604BK_2836503 Bus1=1823815 Bus2=1823814
New Line.144581__2912129 Bus1=26824809 Bus2=103004796
New Line.GS80BK__2876680 Bus1=1992588 Bus2=1992589
New Line.GT18BK_GT16BK_2893174 Bus1=1992535 Bus2=26621405
New Line.GS71BK__2864177 Bus1=1992508 Bus2=1765894
New Line.RD506__2912120 Bus1=27043862 Bus2=1992431
New Line.RDZ95_RDZ96_2836508 Bus1=1823850 Bus2=1823818
New Line.REC48__2841214 Bus1=1823847 Bus2=1823848
New Line.11F134__2890567 Bus1=103332079 Bus2=26451272
New Line.RE585__2889669 Bus1=1823868 Bus2=25431432
New Line.BUS_103033344 Bus1=103013238 Bus2=103013242
New Line.BUS_103033343 Bus1=103013238 Bus2=103013241
New Line.BUS_103033342 Bus1=103013238 Bus2=103013240
New Line.BUS_103033341 Bus1=103013239 Bus2=103013238
New Line.GS90BK_11H260_2888023 Bus1=103004824 Bus2=27043849
New Line.GT36BK__2912113 Bus1=103004805 Bus2=25680881
New Line.PJ126_145754_103033398 Bus1=26424752 Bus2=103013265
New Line.REC46__2841215 Bus1=1823824 Bus2=1823825
New Line.145754__103033621 Bus1=103013369 Bus2=103060134
New Line.RE585_RDZ93_2885299 Bus1=1823868 Bus2=25945740
New Line.GT17BK__2893176 Bus1=26621406 Bus2=26621407
New Line.145754__103033502 Bus1=103013303 Bus2=103013368
New Line.RDZ95_RE585_2836547 Bus1=1823868 Bus2=1823850
New Line.145754__103033582 Bus1=103013370 Bus2=103093268
New Line.145754__103033501 Bus1=103013302 Bus2=103013365
New Line.145754__103033348 Bus1=103013242 Bus2=103013278
New Line.145754__103033346 Bus1=103013240 Bus2=103013317
New Line.145754__103033347 Bus1=103013241 Bus2=103013319
New Line.145754__103033345 Bus1=103013265 Bus2=103013239
New Line.REA79__2842217 Bus1=26595445 Bus2=26595446
New Line.GS90BK_GS93BK_2852958 Bus1=1992558 Bus2=1992553
New Line.REC47_REC48_2836514 Bus1=25113875 Bus2=1823847
New Line.RDZ73_0360BK_2836521 Bus1=1823813 Bus2=1823860
New Line.PJ126__2892037 Bus1=27145219 Bus2=26512066
New Line.PJ126__2892036 Bus1=27145218 Bus2=26512068
New Line.PJ126__2892035 Bus1=27145217 Bus2=26424752
New Line.RDZ96_RDZ99_2836509 Bus1=1823818 Bus2=1823817
New Line.PJ126__2892038 Bus1=26424757 Bus2=27145220
New Line.GS93BK_GT31BK_2852959 Bus1=1992553 Bus2=1992550
New Line.GS89BK_GS89BK_2852956 Bus1=1992591 Bus2=T5120B01_10000012
New Line.144581_GT36BK_103013422 Bus1=103004800 Bus2=103004805
New Line.HV17BK_GS68BK_2852968 Bus1=1992509 Bus2=1992493
New Line.11F134_11F134_2890568 Bus1=26424528 Bus2=103332075
New Line.11F134_11F134_2890569 Bus1=26424532 Bus2=26424523
New Line.REA81_C603BK_2836502 Bus1=1823869 Bus2=1823815
New Line.11F134_11F134_2890566 Bus1=26424530 Bus2=26424529
New Line.BUS_2913799 Bus1=26449576 Bus2=27145133
New Line.BUS_2913798 Bus1=26449576 Bus2=27145132
New Line.GS83BK__2864179 Bus1=1765896 Bus2=1992587
New Line.BUS_2913797 Bus1=26449576 Bus2=27145131
New Line.BUS_2913796 Bus1=27145130 Bus2=26449576
New Line.0360BK__2841221 Bus1=1823860 Bus2=1823861
New Line.GS90BK__103013462 Bus1=1992558 Bus2=103004824
New Line.REA50_REA51_2836511 Bus1=1823816 Bus2=1823849
New Line.BUS_103033498 Bus1=103013299 Bus2=103013303
New Line.BUS_103033496 Bus1=103013299 Bus2=103013301
New Line.BUS_103033497 Bus1=103013299 Bus2=103013302
New Line.BUS_103033495 Bus1=103013300 Bus2=103013299
New Line.BUS_2913883 Bus1=26512065 Bus2=27145217
New Line.BUS_2913886 Bus1=27145220 Bus2=26512065
New Line.BUS_2913803 Bus1=26449575 Bus2=27145137
New Line.BUS_2913885 Bus1=26512065 Bus2=27145219
New Line.BUS_2913802 Bus1=26449575 Bus2=27145136
New Line.BUS_2913884 Bus1=26512065 Bus2=27145218
New Line.BUS_2913801 Bus1=26449575 Bus2=27145135
New Line.BUS_2913800 Bus1=27145134 Bus2=26449575
New Line.REC48_REC46_2836515 Bus1=1823847 Bus2=1823824
New Line.REA52_REC47_2836513 Bus1=1823819 Bus2=1765890
New Line.GT31BK_GT28BK_2852960 Bus1=1992550 Bus2=GT28BK_103013451
New Line.RDZ75__2841220 Bus1=1823866 Bus2=1823867
New Line.145754_145754_103033631 Bus1=103013319 Bus2=103013370
New Line.145754_187M75_104868961 Bus1=103013317 Bus2=103603012
New Line.GS76BK__2864204 Bus1=1992507 Bus2=1765893
New Line.145754_145754_103033634 Bus1=103013317 Bus2=103013371
New Line.PGZ90_PGZ90_104098136 Bus1=103314247 Bus2=103317988
New Line.187M75__104868786 Bus1=103603012 Bus2=103602979
New Line.GT20BK__2864180 Bus1=1992539 Bus2=1992541
New Line.GT20BK_GT18BK_2852962 Bus1=1992539 Bus2=1992535
New Line.PGZ90__2887734 Bus1=26259151 Bus2=26489505
New Line.PJ126__2892042 Bus1=26512071 Bus2=T5120B01_10000007
New Line.PJ126__2892041 Bus1=26512070 Bus2=1992472
New Line.HV16BK_HV15BK_2852949 Bus1=1992511 Bus2=1992510
New Line.MA843__2912030 Bus1=27043772 Bus2=1823845
New Line.144581__2895224 Bus1=26824809 Bus2=T5120B01_10000008
New Line.11F134__2890998 Bus1=27145136 Bus2=103004798
New Line.11F134__2890999 Bus1=27145137 Bus2=26424527
New Line.145754__103033616 Bus1=103013366 Bus2=T5120B01_10000010
New Line.145754__103033614 Bus1=103013371 Bus2=T5120B01_10000009
New Line.11F134__2890992 Bus1=26424523 Bus2=T5120B01_10000004
New Line.11F134__2890993 Bus1=103332075 Bus2=T5120B01_10000005
New Line.11F134__2890994 Bus1=103332076 Bus2=T5120B01_10000006
New Line.11F134__2890996 Bus1=26424529 Bus2=27145134
New Line.11F134__2890997 Bus1=27145135 Bus2=26424528
New Line.145754__103033499 Bus1=103013321 Bus2=103013300
New Line.GT28BK_GT20BK_2852961 Bus1=GT28BK_103013451 Bus2=1992539
New Line.PGZ90__2891086 Bus1=26424675 Bus2=103314247
New Line.PGZ90__2891087 Bus1=26424675 Bus2=26259149
New Line.MA843__2841234 Bus1=1823845 Bus2=1823846
New Line.PGZ90__2891088 Bus1=26424675 Bus2=26259150
New Line.REC47__2842711 Bus1=1765890 Bus2=25113875
New Line.PGZ90__2891089 Bus1=26259148 Bus2=26424675
New Line.9GY40_9GD25_2881984 Bus1=103004792 Bus2=26259236
New Line.RD506__2864173 Bus1=1992431 Bus2=1992432
New Line.RDZ72_RDZ73_2836506 Bus1=1823811 Bus2=1823813
New Line.11H260__2888026 Bus1=26172320 Bus2=26172321
